Version 4
SHEET 1 880 680
WIRE 448 64 416 64
WIRE 416 80 416 64
WIRE 416 80 272 80
WIRE 272 96 272 80
WIRE 416 96 416 80
WIRE 96 176 64 176
WIRE 224 176 96 176
WIRE 96 192 96 176
WIRE 272 208 272 192
WIRE 416 208 416 176
WIRE 96 288 96 272
FLAG 96 288 0
FLAG 272 208 0
FLAG 416 208 0
FLAG 64 176 Vgs
IOPIN 64 176 In
FLAG 448 64 Vds
IOPIN 448 64 Out
SYMBOL nmos 224 96 R0
SYMATTR InstName M1
SYMATTR Value nch_tt
SYMBOL voltage 96 176 R0
WINDOW 123 0 0 Left 0
WINDOW 39 0 0 Left 0
SYMATTR InstName V1
SYMATTR Value 0.9
SYMBOL voltage 416 80 R0
WINDOW 123 0 0 Left 0
WINDOW 39 0 0 Left 0
SYMATTR InstName V2
SYMATTR Value 1.8V
TEXT -56 96 Left 2 !.include TSMC180.lib
TEXT -8 128 Left 2 !.dc V2 0 1.8 0.01
