Version 4
SHEET 1 880 680
WIRE 352 16 256 16
WIRE 480 16 432 16
WIRE 144 96 80 96
WIRE 256 96 256 16
WIRE 256 96 224 96
WIRE 480 96 480 16
WIRE 480 96 368 96
WIRE 592 96 480 96
WIRE 368 128 368 96
WIRE 80 144 80 96
WIRE 256 144 256 96
WIRE 320 144 256 144
WIRE 592 144 592 96
WIRE 320 192 288 192
WIRE 80 240 80 224
WIRE 368 240 368 208
FLAG 80 240 0
FLAG 592 224 0
FLAG 368 240 0
FLAG 288 192 0
FLAG 592 96 Vout
IOPIN 592 96 Out
FLAG 80 96 Vin
IOPIN 80 96 In
SYMBOL voltage 80 128 R0
WINDOW 123 0 0 Left 0
WINDOW 39 0 0 Left 0
SYMATTR InstName V1
SYMATTR Value SINE(0 0.5 1k)
SYMBOL res 240 80 R90
WINDOW 0 0 56 VBottom 2
WINDOW 3 32 56 VTop 2
SYMATTR InstName R1
SYMATTR Value 1k
SYMBOL res 448 0 R90
WINDOW 0 0 56 VBottom 2
WINDOW 3 32 56 VTop 2
SYMATTR InstName R2
SYMATTR Value 3k
SYMBOL res 608 240 R180
WINDOW 0 36 76 Left 2
WINDOW 3 36 40 Left 2
SYMATTR InstName R3
SYMATTR Value 1
SYMBOL g 368 112 R0
WINDOW 3 24 96 Invisible 2
SYMATTR InstName G1
SYMATTR Value 1Meg
TEXT 46 264 Left 2 !.tran 10m
