Version 4
SHEET 1 880 680
WIRE 128 -240 48 -240
WIRE 336 -240 208 -240
WIRE 336 -224 336 -240
WIRE 48 -208 48 -240
WIRE 336 -144 336 -160
WIRE 48 -96 48 -128
WIRE 144 32 64 32
WIRE 352 32 224 32
WIRE 352 48 352 32
WIRE 64 64 64 32
WIRE 352 128 352 112
WIRE 64 176 64 144
FLAG 64 176 0
FLAG 352 208 0
FLAG 64 32 Vin1
IOPIN 64 32 In
FLAG 352 32 Vout1
IOPIN 352 32 Out
FLAG 48 -96 0
FLAG 336 -64 0
FLAG 48 -240 Vin2
IOPIN 48 -240 In
FLAG 336 -240 Vout2
IOPIN 336 -240 Out
SYMBOL voltage 64 48 R0
WINDOW 123 0 0 Left 0
WINDOW 39 0 0 Left 0
SYMATTR InstName V1
SYMATTR Value SINE(0 1 100)
SYMBOL res 240 16 R90
WINDOW 0 0 56 VBottom 2
WINDOW 3 32 56 VTop 2
SYMATTR InstName R1
SYMATTR Value 1k
SYMBOL res 368 224 R180
WINDOW 0 36 76 Left 2
WINDOW 3 36 40 Left 2
SYMATTR InstName R2
SYMATTR Value 100
SYMBOL cap 336 48 R0
SYMATTR InstName C1
SYMATTR Value 1µ
SYMBOL voltage 48 -224 R0
WINDOW 123 0 0 Left 0
WINDOW 39 0 0 Left 0
SYMATTR InstName V2
SYMATTR Value SINE(0 1 1meg)
SYMBOL res 224 -256 R90
WINDOW 0 0 56 VBottom 2
WINDOW 3 32 56 VTop 2
SYMATTR InstName R3
SYMATTR Value 1k
SYMBOL res 352 -48 R180
WINDOW 0 36 76 Left 2
WINDOW 3 36 40 Left 2
SYMATTR InstName R4
SYMATTR Value 100
SYMBOL cap 320 -224 R0
SYMATTR InstName C2
SYMATTR Value 1µ
TEXT 32 232 Left 2 !.tran 10us
