Version 4
SHEET 1 972 680
WIRE 384 32 272 32
WIRE 272 64 272 32
WIRE 224 112 96 112
WIRE 96 128 96 112
WIRE 224 144 224 112
WIRE 96 224 96 208
WIRE 272 224 272 160
WIRE 272 224 224 224
WIRE 384 224 384 32
WIRE 384 224 272 224
WIRE 272 240 272 224
WIRE 96 320 96 304
WIRE 224 320 224 224
WIRE 224 320 96 320
FLAG 272 240 0
SYMBOL voltage 96 112 R0
WINDOW 3 -136 -65 Left 2
WINDOW 123 0 0 Left 0
WINDOW 39 0 0 Left 0
SYMATTR Value SINE(0 0.159m 1k)
SYMATTR InstName V1
SYMBOL nmos 224 64 R0
SYMATTR InstName M1
SYMATTR Value nch_tt
SYMATTR Value2 w=6u l=10u
SYMBOL voltage 96 208 R0
WINDOW 123 0 0 Left 0
WINDOW 39 0 0 Left 0
SYMATTR InstName V2
SYMATTR Value {X}
TEXT 320 272 Left 2 !.include TSMC180.lib
TEXT 64 80 Left 2 ;F=1kHz
TEXT 208 56 Left 2 ;Long
TEXT 320 304 Left 2 !.step param X -1.8 1.8 0.2
TEXT 320 240 Left 2 !.tran 10m
TEXT 0 352 Left 2 !.meas TRAN Capacitance MAX Ig(M1) FROM 2m TO 10m
