Version 4
SHEET 1 880 848
WIRE 32 560 32 512
WIRE 32 560 -48 560
WIRE 112 560 32 560
WIRE -48 608 -48 560
WIRE 112 608 112 560
WIRE -96 624 -112 624
WIRE -192 672 -224 672
WIRE -112 672 -112 624
WIRE -112 672 -192 672
WIRE -192 688 -192 672
WIRE -48 768 -48 704
WIRE 112 768 112 672
WIRE 112 768 -48 768
WIRE 144 768 112 768
WIRE -192 784 -192 768
FLAG -224 672 Vgs
IOPIN -224 672 In
FLAG -192 784 0
FLAG 32 512 0
FLAG 144 768 Vds
IOPIN 144 768 Out
SYMBOL voltage -192 672 R0
WINDOW 0 -32 56 VBottom 2
WINDOW 3 32 56 VTop 2
WINDOW 123 0 0 Left 0
WINDOW 39 0 0 Left 0
SYMATTR InstName V1
SYMATTR Value {X}
SYMBOL cap 96 608 R0
SYMATTR InstName C1
SYMATTR Value 1p
SYMBOL pmos -96 704 M180
SYMATTR InstName M1
SYMATTR Value pch_tt
SYMATTR Value2 W=240n, L=180n
TEXT -552 520 Left 2 !.include TSMC180.lib\n.step param X -1.8 -0.6 0.01\n.tran 100u
TEXT -552 488 Left 2 !.ic V(Vds)={X}
TEXT -552 456 Left 2 !.meas TRAN Req AVG (V(vds)/Id(M1)) TRIG time=0 TARG V(vds)={X}/2
TEXT -128 832 Left 2 ;W=240n,L=180n
TEXT -112 592 Left 2 ;G
TEXT -40 608 Left 2 ;S
TEXT -40 704 Left 2 ;D
