Version 4
SHEET 1 880 680
WIRE 384 -32 384 -80
WIRE 384 -32 304 -32
WIRE 464 -32 384 -32
WIRE 304 16 304 -32
WIRE 464 16 464 -32
WIRE 256 32 240 32
WIRE 160 80 128 80
WIRE 240 80 240 32
WIRE 240 80 160 80
WIRE 160 96 160 80
WIRE 304 176 304 112
WIRE 464 176 464 80
WIRE 464 176 304 176
WIRE 496 176 464 176
WIRE 160 192 160 176
FLAG 128 80 Vgs
IOPIN 128 80 In
FLAG 160 192 0
FLAG 384 -80 0
FLAG 496 176 Vds
IOPIN 496 176 Out
SYMBOL voltage 160 80 R0
WINDOW 0 -32 56 VBottom 2
WINDOW 3 32 56 VTop 2
WINDOW 123 0 0 Left 0
WINDOW 39 0 0 Left 0
SYMATTR InstName V1
SYMATTR Value {X}
SYMBOL cap 448 16 R0
SYMATTR InstName C1
SYMATTR Value 1p
SYMBOL pmos 256 112 M180
SYMATTR InstName M1
SYMATTR Value pch_tt
SYMATTR Value2 W=400n, L=180n
TEXT -104 344 Left 2 !.include TSMC180.lib\n.step param X -1.8 -0.6 0.01\n.tran 100u
TEXT -104 312 Left 2 !.ic V(Vds)={X}
TEXT -104 280 Left 2 !.meas TRAN Req AVG (V(vds)/Id(M1)) TRIG time=0 TARG V(vds)={X}/2
TEXT 224 240 Left 2 ;W=400n,L=180n
TEXT 240 0 Left 2 ;G
TEXT 312 16 Left 2 ;S
TEXT 312 112 Left 2 ;D
