Version 4
SHEET 1 880 680
WIRE 432 80 256 80
WIRE 432 96 432 80
WIRE 208 144 64 144
WIRE 64 160 64 144
WIRE 208 160 208 144
WIRE 64 256 64 240
WIRE 256 256 256 176
WIRE 256 256 64 256
WIRE 432 256 432 160
WIRE 432 256 256 256
WIRE 256 272 256 256
FLAG 256 272 0
SYMBOL voltage 64 144 R0
WINDOW 123 0 0 Left 0
WINDOW 39 0 0 Left 0
SYMATTR InstName V1
SYMATTR Value 1.8
SYMBOL cap 416 96 R0
SYMATTR InstName C1
SYMATTR Value 1p
SYMBOL nmos 208 80 R0
SYMATTR InstName M1
SYMATTR Value nch_tt
SYMATTR Value2 w=6u L=10u
TEXT 16 48 Left 2 !.include TSMC180.lib
TEXT 14 296 Left 2 !.tran 0 30n 0.1n
TEXT 368 56 Left 2 !.ic V(n001)=1.8
